*
 O

  5  4  0  0  0  0  0  0  0  0999 V2000
   -0.5170    8.7270    1.1820 C   0  0  0  0  0  0  0  0  0  0  0  0
    0.3470    9.0590    1.8110 H   0  0  0  0  0  0  0  0  0  0  0  0
   -1.2840    9.5370    1.2870 H   0  0  0  0  0  0  0  0  0  0  0  0
   -0.9041    7.7950    1.5377 H   0  0  0  0  0  0  0  0  0  0  0  0
   -0.2338    8.5736    0.1616 H   0  0  0  0  0  0  0  0  0  0  0  0
  1  2  1  0  0  0  0
  1  3  1  0  0  0  0
  1  4  1  0  0  0  0
  1  5  1  0  0  0  0
M  END
$$$$
