
 OpenBabel06181902163D

 83 85  0  0  0  0  0  0  0  0999 V2000
    0.2070    7.2010   -0.4190 O   0  0  0  0  0  0  0  0  0  0  0  0
   -0.0530    8.5900   -0.2410 C   0  0  0  0  0  0  0  0  0  0  0  0
   -0.5170    8.7270    1.1820 C   0  0  0  0  0  0  0  0  0  0  0  0
   -0.9590    7.4170    1.5420 O   0  0  0  0  0  0  0  0  0  0  0  0
   -0.0520    6.5650    0.8410 C   0  0  0  0  0  0  0  0  0  0  0  0
   -0.3490    4.9620    0.7340 C   0  0  0  0  0  0  0  0  0  0  0  0
   -0.4670    3.9810    1.8370 C   0  0  0  0  0  0  0  0  0  0  0  0
   -0.4030    4.0010    3.3050 C   0  0  0  0  0  0  0  0  0  0  0  0
   -0.3120    3.3650    4.3650 C   0  0  0  0  0  0  0  0  0  0  0  0
   -0.1900    2.4160    5.5570 C   0  0  0  0  0  0  0  0  0  0  0  0
   -0.0210    3.2940    6.7750 C   0  0  0  0  0  0  0  0  0  0  0  0
   -1.2110    1.2370    5.8200 C   0  0  0  0  0  0  0  0  0  0  0  0
    1.0870    1.6070    5.2760 C   0  0  0  0  0  0  0  0  0  0  0  0
   -0.5540    2.6030    1.5560 C   0  0  0  0  0  0  0  0  0  0  0  0
   -0.5090    2.0160    0.3310 C   0  0  0  0  0  0  0  0  0  0  0  0
   -0.4070    2.8710   -0.7830 C   0  0  0  0  0  0  0  0  0  0  0  0
   -0.4250    2.1790   -2.0800 C   0  0  0  0  0  0  0  0  0  0  0  0
   -0.4560    1.4400   -3.0570 C   0  0  0  0  0  0  0  0  0  0  0  0
   -0.4930    0.5600   -4.2810 C   0  0  0  0  0  0  0  0  0  0  0  0
   -1.6310   -0.4560   -4.0750 C   0  0  0  0  0  0  0  0  0  0  0  0
    0.7440   -0.3380   -4.5300 C   0  0  0  0  0  0  0  0  0  0  0  0
   -0.7270    1.4480   -5.4920 C   0  0  0  0  0  0  0  0  0  0  0  0
   -0.3400    4.3240   -0.5810 C   0  0  0  0  0  0  0  0  0  0  0  0
   -0.5390    0.5060    0.3620 C   0  0  0  0  0  0  0  0  0  0  0  0
   -0.5720   -0.7240    0.5490 C   0  0  0  0  0  0  0  0  0  0  0  0
   -0.6070   -2.2200    0.6940 C   0  0  0  0  0  0  0  0  0  0  0  0
   -0.4890   -2.9700   -0.4990 C   0  0  0  0  0  0  0  0  0  0  0  0
   -0.5100   -4.3780   -0.4760 C   0  0  0  0  0  0  0  0  0  0  0  0
   -0.3430   -5.2660   -1.6060 C   0  0  0  0  0  0  0  0  0  0  0  0
   -0.2250   -6.2060   -2.3640 C   0  0  0  0  0  0  0  0  0  0  0  0
   -0.0900   -7.4050   -3.2260 C   0  0  0  0  0  0  0  0  0  0  0  0
   -1.1780   -8.4820   -2.9910 C   0  0  0  0  0  0  0  0  0  0  0  0
   -0.7050   -9.9160   -2.6980 C   0  0  0  0  0  0  0  0  0  0  0  0
   -0.6690   -5.0440    0.7130 C   0  0  0  0  0  0  0  0  0  0  0  0
   -0.7790   -4.3940    1.9260 C   0  0  0  0  0  0  0  0  0  0  0  0
   -0.9450   -5.3970    2.9930 C   0  0  0  0  0  0  0  0  0  0  0  0
   -1.0890   -6.5320    3.4410 C   0  0  0  0  0  0  0  0  0  0  0  0
   -1.2820   -8.0210    3.5370 C   0  0  0  0  0  0  0  0  0  0  0  0
    0.0250   -8.8450    3.6940 C   0  0  0  0  0  0  0  0  0  0  0  0
   -0.1520  -10.3140    3.2530 C   0  0  0  0  0  0  0  0  0  0  0  0
   -0.7390   -2.9540    1.9420 C   0  0  0  0  0  0  0  0  0  0  0  0
    0.8380    9.2380   -0.4430 H   0  0  0  0  0  0  0  0  0  0  0  0
   -0.8520    8.9500   -0.9380 H   0  0  0  0  0  0  0  0  0  0  0  0
    0.3470    9.0590    1.8110 H   0  0  0  0  0  0  0  0  0  0  0  0
   -1.2840    9.5370    1.2870 H   0  0  0  0  0  0  0  0  0  0  0  0
    0.8990    6.5920    1.4130 H   0  0  0  0  0  0  0  0  0  0  0  0
   -0.9550    3.8560    6.9670 H   0  0  0  0  0  0  0  0  0  0  0  0
    0.2550    2.6920    7.6610 H   0  0  0  0  0  0  0  0  0  0  0  0
    0.8000    4.0130    6.5630 H   0  0  0  0  0  0  0  0  0  0  0  0
   -2.2290    1.5650    6.0910 H   0  0  0  0  0  0  0  0  0  0  0  0
   -1.2820    0.5060    4.9820 H   0  0  0  0  0  0  0  0  0  0  0  0
   -0.8630    0.6160    6.6990 H   0  0  0  0  0  0  0  0  0  0  0  0
    1.9250    2.2890    5.0450 H   0  0  0  0  0  0  0  0  0  0  0  0
    1.3750    0.9940    6.1600 H   0  0  0  0  0  0  0  0  0  0  0  0
    0.9450    0.9160    4.4120 H   0  0  0  0  0  0  0  0  0  0  0  0
   -0.6410    1.8840    2.3620 H   0  0  0  0  0  0  0  0  0  0  0  0
   -1.4290   -1.1090   -3.1990 H   0  0  0  0  0  0  0  0  0  0  0  0
   -2.5920    0.0680   -3.9130 H   0  0  0  0  0  0  0  0  0  0  0  0
   -1.7430   -1.1090   -4.9710 H   0  0  0  0  0  0  0  0  0  0  0  0
    0.9390   -1.0340   -3.6910 H   0  0  0  0  0  0  0  0  0  0  0  0
    0.5700   -0.9700   -5.4420 H   0  0  0  0  0  0  0  0  0  0  0  0
    1.6500    0.2620   -4.7350 H   0  0  0  0  0  0  0  0  0  0  0  0
   -1.6080    2.0960   -5.3090 H   0  0  0  0  0  0  0  0  0  0  0  0
    0.1640    2.0860   -5.6640 H   0  0  0  0  0  0  0  0  0  0  0  0
   -0.9150    0.8320   -6.3950 H   0  0  0  0  0  0  0  0  0  0  0  0
   -0.2430    4.9610   -1.4520 H   0  0  0  0  0  0  0  0  0  0  0  0
   -0.3700   -2.4550   -1.4380 H   0  0  0  0  0  0  0  0  0  0  0  0
   -0.0310   -7.1040   -4.2850 H   0  0  0  0  0  0  0  0  0  0  0  0
    0.8440   -7.8990   -2.8740 H   0  0  0  0  0  0  0  0  0  0  0  0
   -1.8560   -8.1780   -2.1690 H   0  0  0  0  0  0  0  0  0  0  0  0
   -1.7420   -8.5450   -3.9450 H   0  0  0  0  0  0  0  0  0  0  0  0
   -0.1940   -9.9710   -1.7160 H   0  0  0  0  0  0  0  0  0  0  0  0
   -1.5890  -10.5970   -2.6560 H   0  0  0  0  0  0  0  0  0  0  0  0
   -0.0290  -10.2930   -3.4910 H   0  0  0  0  0  0  0  0  0  0  0  0
   -0.6950   -6.1320    0.6880 H   0  0  0  0  0  0  0  0  0  0  0  0
   -1.8790   -8.2850    4.4330 H   0  0  0  0  0  0  0  0  0  0  0  0
   -1.6880   -8.3400    2.5540 H   0  0  0  0  0  0  0  0  0  0  0  0
    0.8310   -8.4230    3.0600 H   0  0  0  0  0  0  0  0  0  0  0  0
    0.3520   -8.8410    4.7550 H   0  0  0  0  0  0  0  0  0  0  0  0
   -0.4190  -10.3680    2.1730 H   0  0  0  0  0  0  0  0  0  0  0  0
    0.7950  -10.8860    3.3840 H   0  0  0  0  0  0  0  0  0  0  0  0
   -0.9450  -10.8200    3.8390 H   0  0  0  0  0  0  0  0  0  0  0  0
   -0.8250   -2.4290    2.8850 H   0  0  0  0  0  0  0  0  0  0  0  0
  1  2  1  0  0  0  0
  1  5  1  0  0  0  0
  2  3  1  0  0  0  0
  2 42  1  0  0  0  0
  2 43  1  0  0  0  0
  3  4  1  0  0  0  0
  3 44  1  0  0  0  0
  3 45  1  0  0  0  0
  4  5  1  0  0  0  0
  5  6  1  0  0  0  0
  5 46  1  0  0  0  0
  6  7  2  0  0  0  0
  6 23  1  0  0  0  0
  7  8  1  0  0  0  0
  7 14  1  0  0  0  0
  8  9  3  0  0  0  0
  9 10  1  0  0  0  0
 10 11  1  0  0  0  0
 10 12  1  0  0  0  0
 10 13  1  0  0  0  0
 11 47  1  0  0  0  0
 11 48  1  0  0  0  0
 11 49  1  0  0  0  0
 12 50  1  0  0  0  0
 12 51  1  0  0  0  0
 12 52  1  0  0  0  0
 13 53  1  0  0  0  0
 13 54  1  0  0  0  0
 13 55  1  0  0  0  0
 14 15  2  0  0  0  0
 14 56  1  0  0  0  0
 15 16  1  0  0  0  0
 15 24  1  0  0  0  0
 16 17  1  0  0  0  0
 16 23  2  0  0  0  0
 17 18  3  0  0  0  0
 18 19  1  0  0  0  0
 19 20  1  0  0  0  0
 19 21  1  0  0  0  0
 19 22  1  0  0  0  0
 20 57  1  0  0  0  0
 20 58  1  0  0  0  0
 20 59  1  0  0  0  0
 21 60  1  0  0  0  0
 21 61  1  0  0  0  0
 21 62  1  0  0  0  0
 22 63  1  0  0  0  0
 22 64  1  0  0  0  0
 22 65  1  0  0  0  0
 23 66  1  0  0  0  0
 24 25  3  0  0  0  0
 25 26  1  0  0  0  0
 26 27  2  0  0  0  0
 26 41  1  0  0  0  0
 27 28  1  0  0  0  0
 27 67  1  0  0  0  0
 28 29  1  0  0  0  0
 28 34  2  0  0  0  0
 29 30  3  0  0  0  0
 30 31  1  0  0  0  0
 31 32  1  0  0  0  0
 31 68  1  0  0  0  0
 31 69  1  0  0  0  0
 32 33  1  0  0  0  0
 32 70  1  0  0  0  0
 32 71  1  0  0  0  0
 33 72  1  0  0  0  0
 33 73  1  0  0  0  0
 33 74  1  0  0  0  0
 34 35  1  0  0  0  0
 34 75  1  0  0  0  0
 35 36  1  0  0  0  0
 35 41  2  0  0  0  0
 36 37  3  0  0  0  0
 37 38  1  0  0  0  0
 38 39  1  0  0  0  0
 38 76  1  0  0  0  0
 38 77  1  0  0  0  0
 39 40  1  0  0  0  0
 39 78  1  0  0  0  0
 39 79  1  0  0  0  0
 40 80  1  0  0  0  0
 40 81  1  0  0  0  0
 40 82  1  0  0  0  0
 41 83  1  0  0  0  0
M  END
>  <MOL Chiral Flag>
0

>  <COMPND>
*****

>  <AUTHOR>
GENERATED BY OPEN BABEL 2.4.1

>  <MASTER>
0    0    0    0    0    0    0    0   83    0   83    0

$$$$
